Version 4.1
SHEET 1 1120 680
WIRE 592 -80 0 -80
WIRE 160 32 128 32
WIRE 256 32 224 32
WIRE 400 96 400 48
WIRE 416 96 400 96
WIRE 0 112 0 -80
WIRE 16 112 0 112
WIRE 128 112 128 32
WIRE 128 112 96 112
WIRE 176 112 128 112
WIRE 256 128 256 32
WIRE 256 128 240 128
WIRE 304 128 256 128
WIRE 400 128 384 128
WIRE 416 128 400 128
WIRE 832 128 832 96
WIRE 176 144 128 144
WIRE 448 160 448 144
WIRE 128 176 128 144
WIRE 208 192 208 160
WIRE 400 192 400 128
WIRE 464 192 400 192
WIRE 592 192 592 -80
WIRE 592 192 544 192
FLAG 128 176 0
FLAG 400 48 0
FLAG 208 192 0
FLAG 448 160 0
FLAG 832 16 V
FLAG 208 96 V
FLAG 448 80 V
FLAG 832 128 0
SYMBOL OpAmps\\AD8608 208 64 R0
SYMATTR InstName U1
SYMBOL OpAmps\\AD8608 448 48 R0
SYMATTR InstName U2
SYMBOL res 400 112 R90
WINDOW 0 0 56 VBottom 2
WINDOW 3 32 56 VTop 2
SYMATTR InstName R1
SYMATTR Value {R1}
SYMBOL res 112 96 R90
WINDOW 0 0 56 VBottom 2
WINDOW 3 32 56 VTop 2
SYMATTR InstName R2
SYMATTR Value {R}
SYMBOL cap 224 16 R90
WINDOW 0 0 32 VBottom 2
WINDOW 3 32 32 VTop 2
SYMATTR InstName C1
SYMATTR Value {C}
SYMBOL res 560 176 R90
WINDOW 0 0 56 VBottom 2
WINDOW 3 32 56 VTop 2
SYMATTR InstName R3
SYMATTR Value {R2}
SYMBOL voltage 832 0 R0
WINDOW 123 0 0 Left 0
WINDOW 39 0 0 Left 0
SYMATTR InstName V1
SYMATTR Value 5
TEXT 664 192 Left 2 !.param R1=100 R2=100 R=100 C=100
TEXT 0 248 Left 2 !.tran 100
